<?xml version="1.0" encoding="UTF-8"?>

<!-- generated on 2024-09-17 10:25:07 by Eclipse SUMO netconvert Version 1.20.0
<configuration xmlns:xsi="http://www.w3.org/2001/XMLSchema-instance" xsi:noNamespaceSchemaLocation="http://sumo.dlr.de/xsd/netconvertConfiguration.xsd">

    <input>
        <osm-files value="map.osm"/>
    </input>

    <output>
        <output-file value="map.net.xml"/>
        <output.street-names value="true"/>
    </output>

    <projection>
        <proj.utm value="true"/>
    </projection>

    <processing>
        <lefthand value="true"/>
    </processing>

</configuration>
-->

<net version="1.20" junctionCornerDetail="5" lefthand="true" limitTurnSpeed="5.50" xmlns:xsi="http://www.w3.org/2001/XMLSchema-instance" xsi:noNamespaceSchemaLocation="http://sumo.dlr.de/xsd/net_file.xsd">

    <location netOffset="-377570.83,-2240146.72" convBoundary="0.00,-0.00,999.43,795.64" origBoundary="85.827741,20.255145,85.837295,20.262327" projParameter="+proj=utm +zone=45 +ellps=WGS84 +datum=WGS84 +units=m +no_defs"/>

    <type id="highway.residential" priority="3" numLanes="1" speed="13.89" disallow="tram rail_urban rail rail_electric rail_fast ship container cable_car subway aircraft wheelchair scooter drone" oneway="0"/>
    <type id="highway.secondary" priority="11" numLanes="1" speed="27.78" disallow="tram rail_urban rail rail_electric rail_fast ship container cable_car subway aircraft wheelchair scooter drone" oneway="0"/>
    <type id="highway.secondary_link" priority="6" numLanes="1" speed="22.22" disallow="tram rail_urban rail rail_electric rail_fast ship container cable_car subway aircraft wheelchair scooter drone" oneway="0"/>
    <type id="highway.service" priority="1" numLanes="1" speed="5.56" allow="pedestrian delivery bicycle" oneway="0"/>

    <edge id=":11160687586_0" function="internal">
        <lane id=":11160687586_0_0" index="0" allow="pedestrian delivery bicycle" speed="3.65" length="4.67" shape="585.88,515.19 585.59,516.60 585.88,517.45 586.72,517.73 588.14,517.45"/>
    </edge>
    <edge id=":293453802_0" function="internal">
        <lane id=":293453802_0_0" index="0" disallow="tram rail_urban rail rail_electric rail_fast ship container cable_car subway aircraft wheelchair scooter drone" speed="3.65" length="4.67" shape="386.60,140.41 385.24,139.93 384.36,140.08 383.95,140.88 384.03,142.32"/>
    </edge>
    <edge id=":293453810_0" function="internal">
        <lane id=":293453810_0_0" index="0" disallow="tram rail_urban rail rail_electric rail_fast ship container cable_car subway aircraft wheelchair scooter drone" speed="6.47" length="9.03" shape="653.50,489.04 651.34,490.25 649.31,490.47 647.43,489.70 645.69,487.94"/>
    </edge>
    <edge id=":293453810_1" function="internal">
        <lane id=":293453810_1_0" index="0" disallow="tram rail_urban rail rail_electric rail_fast ship container cable_car subway aircraft wheelchair scooter drone" speed="8.16" length="14.17" shape="653.50,489.04 650.76,491.81 649.48,494.80 649.69,498.01 651.36,501.43"/>
    </edge>
    <edge id=":293453810_2" function="internal">
        <lane id=":293453810_2_0" index="0" disallow="tram rail_urban rail rail_electric rail_fast ship container cable_car subway aircraft wheelchair scooter drone" speed="3.65" length="4.67" shape="653.50,489.04 653.03,490.40 653.20,491.28 654.01,491.67 655.45,491.57"/>
    </edge>
    <edge id=":293453810_3" function="internal">
        <lane id=":293453810_3_0" index="0" disallow="tram rail_urban rail rail_electric rail_fast ship container cable_car subway aircraft wheelchair scooter drone" speed="6.69" length="9.22" shape="654.00,499.62 652.92,497.41 652.81,495.33 653.65,493.39 655.45,491.57"/>
    </edge>
    <edge id=":293453810_4" function="internal">
        <lane id=":293453810_4_0" index="0" disallow="tram rail_urban rail rail_electric rail_fast ship container cable_car subway aircraft wheelchair scooter drone" speed="13.89" length="14.34" shape="654.00,499.62 645.69,487.94"/>
    </edge>
    <edge id=":293453810_5" function="internal">
        <lane id=":293453810_5_0" index="0" disallow="tram rail_urban rail rail_electric rail_fast ship container cable_car subway aircraft wheelchair scooter drone" speed="3.65" length="1.44" shape="654.00,499.62 652.66,499.08"/>
    </edge>
    <edge id=":293453810_9" function="internal">
        <lane id=":293453810_9_0" index="0" disallow="tram rail_urban rail rail_electric rail_fast ship container cable_car subway aircraft wheelchair scooter drone" speed="3.65" length="3.23" shape="652.66,499.08 651.78,499.21 651.34,499.99 651.36,501.43"/>
    </edge>
    <edge id=":293453810_6" function="internal">
        <lane id=":293453810_6_0" index="0" disallow="tram rail_urban rail rail_electric rail_fast ship container cable_car subway aircraft wheelchair scooter drone" speed="13.89" length="14.22" shape="643.11,489.84 651.36,501.43"/>
    </edge>
    <edge id=":293453810_7" function="internal">
        <lane id=":293453810_7_0" index="0" disallow="tram rail_urban rail rail_electric rail_fast ship container cable_car subway aircraft wheelchair scooter drone" speed="7.97" length="3.92" shape="643.11,489.84 645.87,492.63"/>
    </edge>
    <edge id=":293453810_8" function="internal">
        <lane id=":293453810_8_0" index="0" disallow="tram rail_urban rail rail_electric rail_fast ship container cable_car subway aircraft wheelchair scooter drone" speed="3.65" length="1.44" shape="643.11,489.84 644.47,490.33"/>
    </edge>
    <edge id=":293453810_10" function="internal">
        <lane id=":293453810_10_0" index="0" disallow="tram rail_urban rail rail_electric rail_fast ship container cable_car subway aircraft wheelchair scooter drone" speed="7.97" length="10.34" shape="645.87,492.63 648.84,493.84 652.03,493.49 655.45,491.57"/>
    </edge>
    <edge id=":293453810_11" function="internal">
        <lane id=":293453810_11_0" index="0" disallow="tram rail_urban rail rail_electric rail_fast ship container cable_car subway aircraft wheelchair scooter drone" speed="3.65" length="3.23" shape="644.47,490.33 645.35,490.17 645.76,489.38 645.69,487.94"/>
    </edge>
    <edge id=":293453826_0" function="internal">
        <lane id=":293453826_0_0" index="0" disallow="tram rail_urban rail rail_electric rail_fast ship container cable_car subway aircraft wheelchair scooter drone" speed="3.65" length="4.67" shape="1.32,431.92 -0.01,431.38 -0.90,431.49 -1.34,432.27 -1.32,433.72"/>
    </edge>
    <edge id=":293453829_0" function="internal">
        <lane id=":293453829_0_0" index="0" disallow="tram rail_urban rail rail_electric rail_fast ship container cable_car subway aircraft wheelchair scooter drone" speed="13.89" length="14.48" shape="198.06,698.46 189.24,686.98"/>
    </edge>
    <edge id=":293453829_1" function="internal">
        <lane id=":293453829_1_0" index="0" disallow="tram rail_urban rail rail_electric rail_fast ship container cable_car subway aircraft wheelchair scooter drone" speed="7.96" length="4.15" shape="198.06,698.46 195.27,695.69 195.07,695.61"/>
    </edge>
    <edge id=":293453829_2" function="internal">
        <lane id=":293453829_2_0" index="0" disallow="tram rail_urban rail rail_electric rail_fast ship container cable_car subway aircraft wheelchair scooter drone" speed="3.65" length="1.44" shape="198.06,698.46 196.70,697.99"/>
    </edge>
    <edge id=":293453829_9" function="internal">
        <lane id=":293453829_9_0" index="0" disallow="tram rail_urban rail rail_electric rail_fast ship container cable_car subway aircraft wheelchair scooter drone" speed="7.96" length="10.14" shape="195.07,695.61 192.28,694.51 189.09,694.91 185.70,696.90"/>
    </edge>
    <edge id=":293453829_10" function="internal">
        <lane id=":293453829_10_0" index="0" disallow="tram rail_urban rail rail_electric rail_fast ship container cable_car subway aircraft wheelchair scooter drone" speed="3.65" length="3.23" shape="196.70,697.99 195.82,698.15 195.42,698.95 195.50,700.39"/>
    </edge>
    <edge id=":293453829_3" function="internal">
        <lane id=":293453829_3_0" index="0" disallow="tram rail_urban rail rail_electric rail_fast ship container cable_car subway aircraft wheelchair scooter drone" speed="6.45" length="9.03" shape="187.69,699.40 189.83,698.15 191.85,697.89 193.74,698.64 195.50,700.39"/>
    </edge>
    <edge id=":293453829_4" function="internal">
        <lane id=":293453829_4_0" index="0" disallow="tram rail_urban rail rail_electric rail_fast ship container cable_car subway aircraft wheelchair scooter drone" speed="8.04" length="14.25" shape="187.69,699.40 190.39,696.55 191.55,693.54 191.16,690.34 189.24,686.98"/>
    </edge>
    <edge id=":293453829_5" function="internal">
        <lane id=":293453829_5_0" index="0" disallow="tram rail_urban rail rail_electric rail_fast ship container cable_car subway aircraft wheelchair scooter drone" speed="3.65" length="4.67" shape="187.69,699.40 188.13,698.03 187.95,697.15 187.14,696.77 185.70,696.90"/>
    </edge>
    <edge id=":293453829_6" function="internal">
        <lane id=":293453829_6_0" index="0" disallow="tram rail_urban rail rail_electric rail_fast ship container cable_car subway aircraft wheelchair scooter drone" speed="6.55" length="9.12" shape="186.72,688.95 187.94,691.10 188.18,693.14 187.43,695.07 185.70,696.90"/>
    </edge>
    <edge id=":293453829_7" function="internal">
        <lane id=":293453829_7_0" index="0" disallow="tram rail_urban rail rail_electric rail_fast ship container cable_car subway aircraft wheelchair scooter drone" speed="13.89" length="14.43" shape="186.72,688.95 195.50,700.39"/>
    </edge>
    <edge id=":293453829_8" function="internal">
        <lane id=":293453829_8_0" index="0" disallow="tram rail_urban rail rail_electric rail_fast ship container cable_car subway aircraft wheelchair scooter drone" speed="3.65" length="1.44" shape="186.72,688.95 188.08,689.40"/>
    </edge>
    <edge id=":293453829_11" function="internal">
        <lane id=":293453829_11_0" index="0" disallow="tram rail_urban rail rail_electric rail_fast ship container cable_car subway aircraft wheelchair scooter drone" speed="3.65" length="3.23" shape="188.08,689.40 188.96,689.23 189.35,688.42 189.24,686.98"/>
    </edge>
    <edge id=":293453841_0" function="internal">
        <lane id=":293453841_0_0" index="0" disallow="tram rail_urban rail rail_electric rail_fast ship container cable_car subway aircraft wheelchair scooter drone" speed="3.65" length="4.67" shape="66.14,791.97 65.70,793.35 65.88,794.22 66.70,794.60 68.13,794.48"/>
    </edge>
    <edge id=":293453870_0" function="internal">
        <lane id=":293453870_0_0" index="0" disallow="tram rail_urban rail rail_electric rail_fast ship container cable_car subway aircraft wheelchair scooter drone" speed="13.89" length="29.42" shape="636.12,474.99 618.54,451.39"/>
    </edge>
    <edge id=":293453870_1" function="internal">
        <lane id=":293453870_1_0" index="0" disallow="tram rail_urban rail rail_electric rail_fast ship container cable_car subway aircraft wheelchair scooter drone" speed="13.89" length="4.47" shape="636.12,474.99 632.91,471.88"/>
    </edge>
    <edge id=":293453870_2" function="internal">
        <lane id=":293453870_2_0" index="0" allow="pedestrian delivery bicycle" speed="6.78" length="3.41" shape="636.12,474.99 633.96,472.82 633.63,472.70"/>
    </edge>
    <edge id=":293453870_3" function="internal">
        <lane id=":293453870_3_0" index="0" disallow="tram rail_urban rail rail_electric rail_fast ship container cable_car subway aircraft wheelchair scooter drone" speed="3.65" length="1.44" shape="636.12,474.99 634.76,474.50"/>
    </edge>
    <edge id=":293453870_16" function="internal">
        <lane id=":293453870_16_0" index="0" disallow="tram rail_urban rail rail_electric rail_fast ship container cable_car subway aircraft wheelchair scooter drone" speed="13.89" length="25.27" shape="632.91,471.88 631.81,470.81 624.92,465.30 617.83,460.01 612.90,456.46"/>
    </edge>
    <edge id=":293453870_17" function="internal">
        <lane id=":293453870_17_0" index="0" allow="pedestrian delivery bicycle" speed="6.78" length="7.57" shape="633.63,472.70 631.70,471.99 629.33,472.51 626.85,474.36"/>
    </edge>
    <edge id=":293453870_18" function="internal">
        <lane id=":293453870_18_0" index="0" disallow="tram rail_urban rail rail_electric rail_fast ship container cable_car subway aircraft wheelchair scooter drone" speed="3.65" length="3.23" shape="634.76,474.50 633.88,474.66 633.48,475.45 633.55,476.89"/>
    </edge>
    <edge id=":293453870_4" function="internal">
        <lane id=":293453870_4_0" index="0" allow="pedestrian delivery bicycle" speed="4.93" length="5.26" shape="629.11,476.63 630.30,475.73 631.44,475.48 632.52,475.87 633.55,476.89"/>
    </edge>
    <edge id=":293453870_5" function="internal">
        <lane id=":293453870_5_0" index="0" allow="pedestrian delivery bicycle" speed="9.72" length="28.56" shape="629.11,476.63 630.23,473.28 628.84,467.96 624.94,460.66 618.54,451.39"/>
    </edge>
    <edge id=":293453870_6" function="internal">
        <lane id=":293453870_6_0" index="0" allow="pedestrian delivery bicycle" speed="9.72" length="27.83" shape="629.11,476.63 630.02,472.86 627.00,468.07 620.98,462.52 612.90,456.46"/>
    </edge>
    <edge id=":293453870_7" function="internal">
        <lane id=":293453870_7_0" index="0" allow="pedestrian delivery bicycle" speed="3.65" length="4.67" shape="629.11,476.63 629.39,475.22 629.11,474.37 628.27,474.08 626.85,474.36"/>
    </edge>
    <edge id=":293453870_8" function="internal">
        <lane id=":293453870_8_0" index="0" allow="pedestrian delivery bicycle" speed="9.40" length="22.61" shape="611.05,459.08 618.87,464.86 624.11,469.34 626.77,472.51 626.85,474.36"/>
    </edge>
    <edge id=":293453870_9" function="internal">
        <lane id=":293453870_9_0" index="0" disallow="tram rail_urban rail rail_electric rail_fast ship container cable_car subway aircraft wheelchair scooter drone" speed="13.89" length="28.74" shape="611.05,459.08 615.87,462.51 622.71,467.56 629.35,472.82 633.55,476.89"/>
    </edge>
    <edge id=":293453870_10" function="internal">
        <lane id=":293453870_10_0" index="0" disallow="tram rail_urban rail rail_electric rail_fast ship container cable_car subway aircraft wheelchair scooter drone" speed="6.02" length="14.88" shape="611.05,459.08 614.78,460.00 617.96,458.32 619.56,455.09 618.54,451.39"/>
    </edge>
    <edge id=":293453870_11" function="internal">
        <lane id=":293453870_11_0" index="0" disallow="tram rail_urban rail rail_electric rail_fast ship container cable_car subway aircraft wheelchair scooter drone" speed="3.65" length="4.67" shape="611.05,459.08 612.49,459.12 613.28,458.69 613.42,457.81 612.90,456.46"/>
    </edge>
    <edge id=":293453870_12" function="internal">
        <lane id=":293453870_12_0" index="0" disallow="tram rail_urban rail rail_electric rail_fast ship container cable_car subway aircraft wheelchair scooter drone" speed="6.01" length="14.80" shape="615.98,453.31 618.95,457.74 619.43,459.75 617.41,459.32 612.90,456.46"/>
    </edge>
    <edge id=":293453870_13" function="internal">
        <lane id=":293453870_13_0" index="0" allow="pedestrian delivery bicycle" speed="9.72" length="24.29" shape="615.98,453.31 621.78,461.48 625.52,467.72 627.21,472.01 626.85,474.36"/>
    </edge>
    <edge id=":293453870_14" function="internal">
        <lane id=":293453870_14_0" index="0" disallow="tram rail_urban rail rail_electric rail_fast ship container cable_car subway aircraft wheelchair scooter drone" speed="13.89" length="29.41" shape="615.98,453.31 633.55,476.89"/>
    </edge>
    <edge id=":293453870_15" function="internal">
        <lane id=":293453870_15_0" index="0" disallow="tram rail_urban rail rail_electric rail_fast ship container cable_car subway aircraft wheelchair scooter drone" speed="3.65" length="1.44" shape="615.98,453.31 617.34,453.79"/>
    </edge>
    <edge id=":293453870_19" function="internal">
        <lane id=":293453870_19_0" index="0" disallow="tram rail_urban rail rail_electric rail_fast ship container cable_car subway aircraft wheelchair scooter drone" speed="3.65" length="3.23" shape="617.34,453.79 618.22,453.63 618.62,452.83 618.54,451.39"/>
    </edge>
    <edge id=":293453886_0" function="internal">
        <lane id=":293453886_0_0" index="0" disallow="tram rail_urban rail rail_electric rail_fast ship container cable_car subway aircraft wheelchair scooter drone" speed="13.89" length="14.59" shape="337.70,336.03 323.17,334.64"/>
    </edge>
    <edge id=":293453886_1" function="internal">
        <lane id=":293453886_1_0" index="0" disallow="tram rail_urban rail rail_electric rail_fast ship container cable_car subway aircraft wheelchair scooter drone" speed="7.89" length="4.26" shape="337.70,336.03 333.70,336.15 333.46,336.26"/>
    </edge>
    <edge id=":293453886_2" function="internal">
        <lane id=":293453886_2_0" index="0" disallow="tram rail_urban rail rail_electric rail_fast ship container cable_car subway aircraft wheelchair scooter drone" speed="3.65" length="1.44" shape="337.70,336.03 336.41,336.69"/>
    </edge>
    <edge id=":293453886_9" function="internal">
        <lane id=":293453886_9_0" index="0" disallow="tram rail_urban rail rail_electric rail_fast ship container cable_car subway aircraft wheelchair scooter drone" speed="7.89" length="10.18" shape="333.46,336.26 330.79,337.53 328.94,340.18 328.18,344.09"/>
    </edge>
    <edge id=":293453886_10" function="internal">
        <lane id=":293453886_10_0" index="0" disallow="tram rail_urban rail rail_electric rail_fast ship container cable_car subway aircraft wheelchair scooter drone" speed="3.65" length="3.23" shape="336.41,336.69 335.92,337.44 336.23,338.28 337.33,339.21"/>
    </edge>
    <edge id=":293453886_3" function="internal">
        <lane id=":293453886_3_0" index="0" disallow="tram rail_urban rail rail_electric rail_fast ship container cable_car subway aircraft wheelchair scooter drone" speed="6.37" length="9.04" shape="331.37,344.26 331.85,341.80 333.01,340.15 334.83,339.28 337.33,339.21"/>
    </edge>
    <edge id=":293453886_4" function="internal">
        <lane id=":293453886_4_0" index="0" disallow="tram rail_urban rail rail_electric rail_fast ship container cable_car subway aircraft wheelchair scooter drone" speed="8.11" length="14.33" shape="331.37,344.26 331.03,340.30 329.55,337.37 326.93,335.49 323.17,334.64"/>
    </edge>
    <edge id=":293453886_5" function="internal">
        <lane id=":293453886_5_0" index="0" disallow="tram rail_urban rail rail_electric rail_fast ship container cable_car subway aircraft wheelchair scooter drone" speed="3.65" length="4.67" shape="331.37,344.26 330.63,343.02 329.85,342.58 329.04,342.94 328.18,344.09"/>
    </edge>
    <edge id=":293453886_6" function="internal">
        <lane id=":293453886_6_0" index="0" disallow="tram rail_urban rail rail_electric rail_fast ship container cable_car subway aircraft wheelchair scooter drone" speed="6.64" length="9.27" shape="322.93,337.83 325.34,338.38 327.01,339.61 327.96,341.51 328.18,344.09"/>
    </edge>
    <edge id=":293453886_7" function="internal">
        <lane id=":293453886_7_0" index="0" disallow="tram rail_urban rail rail_electric rail_fast ship container cable_car subway aircraft wheelchair scooter drone" speed="13.89" length="14.47" shape="322.93,337.83 337.33,339.21"/>
    </edge>
    <edge id=":293453886_8" function="internal">
        <lane id=":293453886_8_0" index="0" disallow="tram rail_urban rail rail_electric rail_fast ship container cable_car subway aircraft wheelchair scooter drone" speed="3.65" length="1.44" shape="322.93,337.83 324.19,337.12"/>
    </edge>
    <edge id=":293453886_11" function="internal">
        <lane id=":293453886_11_0" index="0" disallow="tram rail_urban rail rail_electric rail_fast ship container cable_car subway aircraft wheelchair scooter drone" speed="3.65" length="3.23" shape="324.19,337.12 324.65,336.35 324.31,335.53 323.17,334.64"/>
    </edge>
    <edge id=":293453889_0" function="internal">
        <lane id=":293453889_0_0" index="0" disallow="tram rail_urban rail rail_electric rail_fast ship container cable_car subway aircraft wheelchair scooter drone" speed="3.65" length="4.67" shape="41.56,399.36 40.80,400.59 40.77,401.49 41.47,402.05 42.89,402.27"/>
    </edge>
    <edge id=":293453890_0" function="internal">
        <lane id=":293453890_0_0" index="0" disallow="tram rail_urban rail rail_electric rail_fast ship container cable_car subway aircraft wheelchair scooter drone" speed="13.89" length="13.93" shape="679.72,536.42 671.47,525.20"/>
    </edge>
    <edge id=":293453890_1" function="internal">
        <lane id=":293453890_1_0" index="0" disallow="tram rail_urban rail rail_electric rail_fast ship container cable_car subway aircraft wheelchair scooter drone" speed="8.00" length="3.83" shape="679.72,536.42 676.95,533.78"/>
    </edge>
    <edge id=":293453890_2" function="internal">
        <lane id=":293453890_2_0" index="0" disallow="tram rail_urban rail rail_electric rail_fast ship container cable_car subway aircraft wheelchair scooter drone" speed="3.65" length="1.44" shape="679.72,536.42 678.35,535.98"/>
    </edge>
    <edge id=":293453890_9" function="internal">
        <lane id=":293453890_9_0" index="0" disallow="tram rail_urban rail rail_electric rail_fast ship container cable_car subway aircraft wheelchair scooter drone" speed="8.00" length="10.18" shape="676.95,533.78 673.99,532.64 670.83,532.99 667.49,534.85"/>
    </edge>
    <edge id=":293453890_10" function="internal">
        <lane id=":293453890_10_0" index="0" disallow="tram rail_urban rail rail_electric rail_fast ship container cable_car subway aircraft wheelchair scooter drone" speed="3.65" length="3.23" shape="678.35,535.98 677.47,536.16 677.09,536.96 677.20,538.40"/>
    </edge>
    <edge id=":293453890_3" function="internal">
        <lane id=":293453890_3_0" index="0" disallow="tram rail_urban rail rail_electric rail_fast ship container cable_car subway aircraft wheelchair scooter drone" speed="6.51" length="8.91" shape="669.42,537.40 671.55,536.22 673.56,535.99 675.44,536.72 677.20,538.40"/>
    </edge>
    <edge id=":293453890_4" function="internal">
        <lane id=":293453890_4_0" index="0" disallow="tram rail_urban rail rail_electric rail_fast ship container cable_car subway aircraft wheelchair scooter drone" speed="8.09" length="13.97" shape="669.42,537.40 672.12,534.69 673.36,531.76 673.14,528.59 671.47,525.20"/>
    </edge>
    <edge id=":293453890_5" function="internal">
        <lane id=":293453890_5_0" index="0" disallow="tram rail_urban rail rail_electric rail_fast ship container cable_car subway aircraft wheelchair scooter drone" speed="3.65" length="4.67" shape="669.42,537.40 669.89,536.04 669.73,535.16 668.93,534.77 667.49,534.85"/>
    </edge>
    <edge id=":293453890_6" function="internal">
        <lane id=":293453890_6_0" index="0" disallow="tram rail_urban rail rail_electric rail_fast ship container cable_car subway aircraft wheelchair scooter drone" speed="6.61" length="8.99" shape="668.83,527.00 669.90,529.18 670.03,531.21 669.23,533.11 667.49,534.85"/>
    </edge>
    <edge id=":293453890_7" function="internal">
        <lane id=":293453890_7_0" index="0" disallow="tram rail_urban rail rail_electric rail_fast ship container cable_car subway aircraft wheelchair scooter drone" speed="13.89" length="14.15" shape="668.83,527.00 677.20,538.40"/>
    </edge>
    <edge id=":293453890_8" function="internal">
        <lane id=":293453890_8_0" index="0" disallow="tram rail_urban rail rail_electric rail_fast ship container cable_car subway aircraft wheelchair scooter drone" speed="3.65" length="1.44" shape="668.83,527.00 670.17,527.54"/>
    </edge>
    <edge id=":293453890_11" function="internal">
        <lane id=":293453890_11_0" index="0" disallow="tram rail_urban rail rail_electric rail_fast ship container cable_car subway aircraft wheelchair scooter drone" speed="3.65" length="3.23" shape="670.17,527.54 671.06,527.42 671.49,526.64 671.47,525.20"/>
    </edge>
    <edge id=":293453896_0" function="internal">
        <lane id=":293453896_0_0" index="0" disallow="tram rail_urban rail rail_electric rail_fast ship container cable_car subway aircraft wheelchair scooter drone" speed="6.51" length="8.84" shape="316.54,490.68 315.98,493.02 314.80,494.65 313.01,495.56 310.60,495.74"/>
    </edge>
    <edge id=":293453896_1" function="internal">
        <lane id=":293453896_1_0" index="0" disallow="tram rail_urban rail rail_electric rail_fast ship container cable_car subway aircraft wheelchair scooter drone" speed="8.13" length="13.84" shape="316.54,490.68 316.71,494.46 318.00,497.36 320.42,499.38 323.96,500.53"/>
    </edge>
    <edge id=":293453896_2" function="internal">
        <lane id=":293453896_2_0" index="0" disallow="tram rail_urban rail rail_electric rail_fast ship container cable_car subway aircraft wheelchair scooter drone" speed="3.65" length="4.67" shape="316.54,490.68 317.23,491.95 317.99,492.42 318.82,492.10 319.73,490.98"/>
    </edge>
    <edge id=":293453896_3" function="internal">
        <lane id=":293453896_3_0" index="0" disallow="tram rail_urban rail rail_electric rail_fast ship container cable_car subway aircraft wheelchair scooter drone" speed="6.66" length="8.96" shape="324.50,497.38 322.22,496.64 320.66,495.32 319.83,493.44 319.73,490.98"/>
    </edge>
    <edge id=":293453896_4" function="internal">
        <lane id=":293453896_4_0" index="0" disallow="tram rail_urban rail rail_electric rail_fast ship container cable_car subway aircraft wheelchair scooter drone" speed="13.89" length="14.00" shape="324.50,497.38 320.95,496.81 317.58,496.36 314.19,496.01 310.60,495.74"/>
    </edge>
    <edge id=":293453896_5" function="internal">
        <lane id=":293453896_5_0" index="0" disallow="tram rail_urban rail rail_electric rail_fast ship container cable_car subway aircraft wheelchair scooter drone" speed="3.65" length="1.44" shape="324.50,497.38 323.18,497.96"/>
    </edge>
    <edge id=":293453896_9" function="internal">
        <lane id=":293453896_9_0" index="0" disallow="tram rail_urban rail rail_electric rail_fast ship container cable_car subway aircraft wheelchair scooter drone" speed="3.65" length="3.23" shape="323.18,497.96 322.65,498.68 322.91,499.54 323.96,500.53"/>
    </edge>
    <edge id=":293453896_6" function="internal">
        <lane id=":293453896_6_0" index="0" disallow="tram rail_urban rail rail_electric rail_fast ship container cable_car subway aircraft wheelchair scooter drone" speed="13.89" length="13.66" shape="310.40,498.93 313.93,499.20 317.20,499.54 320.46,499.97 323.96,500.53"/>
    </edge>
    <edge id=":293453896_7" function="internal">
        <lane id=":293453896_7_0" index="0" disallow="tram rail_urban rail rail_electric rail_fast ship container cable_car subway aircraft wheelchair scooter drone" speed="8.01" length="3.92" shape="310.40,498.93 314.18,498.64 314.29,498.59"/>
    </edge>
    <edge id=":293453896_8" function="internal">
        <lane id=":293453896_8_0" index="0" disallow="tram rail_urban rail rail_electric rail_fast ship container cable_car subway aircraft wheelchair scooter drone" speed="3.65" length="1.44" shape="310.40,498.93 311.65,498.21"/>
    </edge>
    <edge id=":293453896_10" function="internal">
        <lane id=":293453896_10_0" index="0" disallow="tram rail_urban rail rail_electric rail_fast ship container cable_car subway aircraft wheelchair scooter drone" speed="8.01" length="9.98" shape="314.29,498.59 316.99,497.22 318.85,494.67 319.73,490.98"/>
    </edge>
    <edge id=":293453896_11" function="internal">
        <lane id=":293453896_11_0" index="0" disallow="tram rail_urban rail rail_electric rail_fast ship container cable_car subway aircraft wheelchair scooter drone" speed="3.65" length="3.23" shape="311.65,498.21 312.10,497.44 311.75,496.62 310.60,495.74"/>
    </edge>
    <edge id=":293453943_0" function="internal">
        <lane id=":293453943_0_0" index="0" disallow="tram rail_urban rail rail_electric rail_fast ship container cable_car subway aircraft wheelchair scooter drone" speed="6.75" length="9.43" shape="97.24,559.00 94.83,560.14 92.64,560.30 90.70,559.50 88.98,557.73"/>
    </edge>
    <edge id=":293453943_1" function="internal">
        <lane id=":293453943_1_0" index="0" disallow="tram rail_urban rail rail_electric rail_fast ship container cable_car subway aircraft wheelchair scooter drone" speed="7.83" length="14.58" shape="97.24,559.00 94.17,561.65 92.80,564.58 93.13,567.80 95.16,571.31"/>
    </edge>
    <edge id=":293453943_2" function="internal">
        <lane id=":293453943_2_0" index="0" disallow="tram rail_urban rail rail_electric rail_fast ship container cable_car subway aircraft wheelchair scooter drone" speed="3.65" length="4.67" shape="97.24,559.00 96.66,560.32 96.75,561.21 97.52,561.67 98.96,561.70"/>
    </edge>
    <edge id=":293453943_3" function="internal">
        <lane id=":293453943_3_0" index="0" disallow="tram rail_urban rail rail_electric rail_fast ship container cable_car subway aircraft wheelchair scooter drone" speed="6.30" length="9.04" shape="97.67,569.33 96.42,567.16 96.21,565.16 97.06,563.34 98.96,561.70"/>
    </edge>
    <edge id=":293453943_4" function="internal">
        <lane id=":293453943_4_0" index="0" disallow="tram rail_urban rail rail_electric rail_fast ship container cable_car subway aircraft wheelchair scooter drone" speed="13.89" length="14.50" shape="97.67,569.33 88.98,557.73"/>
    </edge>